# GHB package for  MODFLOW-2005, generated by Flopy.
        20         0
        20         0 # stress period 1
         1         1         1   1.0000000E+01   6.0000000E+03
         1         1        10   1.0000000E+01   6.0000000E+03
         1         2         1   1.0000000E+01   6.0000000E+03
         1         2        10   1.0000000E+01   6.0000000E+03
         1         3         1   1.0000000E+01   6.0000000E+03
         1         3        10   1.0000000E+01   6.0000000E+03
         1         4         1   1.0000000E+01   6.0000000E+03
         1         4        10   1.0000000E+01   6.0000000E+03
         1         5         1   1.0000000E+01   6.0000000E+03
         1         5        10   1.0000000E+01   6.0000000E+03
         1         6         1   1.0000000E+01   6.0000000E+03
         1         6        10   1.0000000E+01   6.0000000E+03
         1         7         1   1.0000000E+01   6.0000000E+03
         1         7        10   1.0000000E+01   6.0000000E+03
         1         8         1   1.0000000E+01   6.0000000E+03
         1         8        10   1.0000000E+01   6.0000000E+03
         1         9         1   1.0000000E+01   6.0000000E+03
         1         9        10   1.0000000E+01   6.0000000E+03
         1        10         1   1.0000000E+01   6.0000000E+03
         1        10        10   1.0000000E+01   6.0000000E+03
        20         0 # stress period 2
         1         1         1   1.0000000E+01   6.0000000E+03
         1         1        10   0.0000000E+00   5.0000000E+03
         1         2         1   1.0000000E+01   6.0000000E+03
         1         2        10   0.0000000E+00   5.0000000E+03
         1         3         1   1.0000000E+01   6.0000000E+03
         1         3        10   0.0000000E+00   5.0000000E+03
         1         4         1   1.0000000E+01   6.0000000E+03
         1         4        10   0.0000000E+00   5.0000000E+03
         1         5         1   1.0000000E+01   6.0000000E+03
         1         5        10   0.0000000E+00   5.0000000E+03
         1         6         1   1.0000000E+01   6.0000000E+03
         1         6        10   0.0000000E+00   5.0000000E+03
         1         7         1   1.0000000E+01   6.0000000E+03
         1         7        10   0.0000000E+00   5.0000000E+03
         1         8         1   1.0000000E+01   6.0000000E+03
         1         8        10   0.0000000E+00   5.0000000E+03
         1         9         1   1.0000000E+01   6.0000000E+03
         1         9        10   0.0000000E+00   5.0000000E+03
         1        10         1   1.0000000E+01   6.0000000E+03
         1        10        10   0.0000000E+00   5.0000000E+03
        -1         0 # stress period 3
